MYR
  PyMOL2.4          3D                             0

 44 43  0  0  0  0  0  0  0  0999 V2000
   -1.4511    0.9046   23.6657 H   0  0  0  0  0  0  0  0  0  0  0  0
   -1.1784    2.6050   21.3798 H   0  0  0  0  0  0  0  0  0  0  0  0
   -0.0660    3.2142   22.6380 H   0  0  0  0  0  0  0  0  0  0  0  0
   -0.7974    0.5018   22.0715 H   0  0  0  0  0  0  0  0  0  0  0  0
   -4.2471    3.2616   22.7749 H   0  0  0  0  0  0  0  0  0  0  0  0
   -2.4366    2.5692   24.0109 H   0  0  0  0  0  0  0  0  0  0  0  0
   -2.5761    5.4108   22.1082 H   0  0  0  0  0  0  0  0  0  0  0  0
   -1.8605    4.1987   23.5946 H   0  0  0  0  0  0  0  0  0  0  0  0
   -3.2369    2.6468   21.4315 H   0  0  0  0  0  0  0  0  0  0  0  0
   -2.2684    3.8640   19.9563 H   0  0  0  0  0  0  0  0  0  0  0  0
   -3.9768    4.6610   18.2161 H   0  0  0  0  0  0  0  0  0  0  0  0
   -4.9782    5.1928   19.5877 H   0  0  0  0  0  0  0  0  0  0  0  0
   -2.4578    5.6304   19.8006 H   0  0  0  0  0  0  0  0  0  0  0  0
   -4.5658    3.4716   19.4026 H   0  0  0  0  0  0  0  0  0  0  0  0
   -4.3034    5.2367   21.6962 H   0  0  0  0  0  0  0  0  0  0  0  0
    8.1287    1.4379   23.3999 H   0  0  0  0  0  0  0  0  0  0  0  0
    6.6148    0.8471   22.0896 H   0  0  0  0  0  0  0  0  0  0  0  0
    5.4088    2.1000   21.7800 H   0  0  0  0  0  0  0  0  0  0  0  0
    4.6903    1.5572   24.3118 H   0  0  0  0  0  0  0  0  0  0  0  0
    5.4511   -0.0004   23.9440 H   0  0  0  0  0  0  0  0  0  0  0  0
    4.0459   -0.2021   21.8981 H   0  0  0  0  0  0  0  0  0  0  0  0
    3.2687    1.3467   22.2889 H   0  0  0  0  0  0  0  0  0  0  0  0
    2.7865    0.2190   24.6160 H   0  0  0  0  0  0  0  0  0  0  0  0
    3.0699   -1.3040   23.7339 H   0  0  0  0  0  0  0  0  0  0  0  0
    0.7748   -1.0327   23.4275 H   0  0  0  0  0  0  0  0  0  0  0  0
    1.4051   -0.2205   21.9745 H   0  0  0  0  0  0  0  0  0  0  0  0
    1.2829    1.9614   23.1514 H   0  0  0  0  0  0  0  0  0  0  0  0
    0.6375    1.1438   24.5921 H   0  0  0  0  0  0  0  0  0  0  0  0
    6.7540    2.5550   23.3730 C   0  0  0  0  0  0  0  0  0  0  0  0
    6.2890    3.7910   23.5680 O   0  0  0  0  0  0  0  0  0  0  0  0
    7.8080    2.2240   23.8480 O   0  0  0  0  0  0  0  0  0  0  0  0
    5.9570    1.5760   22.5630 C   0  0  0  0  0  0  0  0  0  0  0  0
    4.9790    0.8800   23.5080 C   0  0  0  0  0  0  0  0  0  0  0  0
    3.7490    0.4630   22.7090 C   0  0  0  0  0  0  0  0  0  0  0  0
    2.7720   -0.2600   23.6370 C   0  0  0  0  0  0  0  0  0  0  0  0
    1.3580   -0.1870   23.0630 C   0  0  0  0  0  0  0  0  0  0  0  0
    0.6950    1.1140   23.5040 C   0  0  0  0  0  0  0  0  0  0  0  0
   -0.7130    1.1870   22.9150 C   0  0  0  0  0  0  0  0  0  0  0  0
   -0.9570    2.6160   22.4470 C   0  0  0  0  0  0  0  0  0  0  0  0
   -2.1430    3.2260   23.1920 C   0  0  0  0  0  0  0  0  0  0  0  0
   -3.3170    3.3930   22.2220 C   0  0  0  0  0  0  0  0  0  0  0  0
   -3.3130    4.7930   21.5950 C   0  0  0  0  0  0  0  0  0  0  0  0
   -2.9450    4.7050   20.1080 C   0  0  0  0  0  0  0  0  0  0  0  0
   -4.2070    4.4920   19.2680 C   0  0  0  0  0  0  0  0  0  0  0  0
 29 30  2  0  0  0  0
 29 31  1  0  0  0  0
 29 32  1  0  0  0  0
 16 31  1  0  0  0  0
 17 32  1  0  0  0  0
 18 32  1  0  0  0  0
 32 33  1  0  0  0  0
 19 33  1  0  0  0  0
 20 33  1  0  0  0  0
 33 34  1  0  0  0  0
 21 34  1  0  0  0  0
 22 34  1  0  0  0  0
 34 35  1  0  0  0  0
 23 35  1  0  0  0  0
 24 35  1  0  0  0  0
 35 36  1  0  0  0  0
 25 36  1  0  0  0  0
 26 36  1  0  0  0  0
 36 37  1  0  0  0  0
 27 37  1  0  0  0  0
 28 37  1  0  0  0  0
 37 38  1  0  0  0  0
  1 38  1  0  0  0  0
  4 38  1  0  0  0  0
 38 39  1  0  0  0  0
  2 39  1  0  0  0  0
  3 39  1  0  0  0  0
 39 40  1  0  0  0  0
  6 40  1  0  0  0  0
  8 40  1  0  0  0  0
 40 41  1  0  0  0  0
  5 41  1  0  0  0  0
  9 41  1  0  0  0  0
 41 42  1  0  0  0  0
  7 42  1  0  0  0  0
 15 42  1  0  0  0  0
 42 43  1  0  0  0  0
 10 43  1  0  0  0  0
 13 43  1  0  0  0  0
 43 44  1  0  0  0  0
 11 44  1  0  0  0  0
 12 44  1  0  0  0  0
 14 44  1  0  0  0  0
M  END
$$$$
